* ngspice KiCad multi-device 74xx model
* quad AND subcircuit

.subckt 74HC08m 1 2 3 4 5 6 7 8 9 10 11 12 13 14
*
.SUBCKT 74HC08  1A 1B  1Y
+     optional: DPWR=$G_DPWR DGND=$G_DGND
+     params: MNTYMXDLY=0 IO_LEVEL=0
U1 and(2) DPWR DGND
+     1A 1B 1Y
+     DLY_HC08 IO_HC MNTYMXDLY={MNTYMXDLY} IO_LEVEL={IO_LEVEL}
.model DLY_HC08 ugate (tplhTY=10ns tplhMX=20ns tphlTY=10ns tphlMX=20ns)
.ENDS  74HC08
*
Xand1 1 2 3 74HC08
Xand2 4 5 6 74HC08
Xand3 9 10 8 74HC08
Xand4 12 13 11 74HC08
.ends



