Version 4.1
SHEET 1 1000 680
WIRE 544 -1088 512 -1088
WIRE 672 -1088 624 -1088
WIRE 272 -1056 240 -1056
WIRE 384 -1056 336 -1056
WIRE 464 -1056 464 -1088
WIRE 608 -1008 576 -1008
WIRE 608 -992 608 -1008
WIRE -112 -960 -128 -960
WIRE 16 -960 -32 -960
WIRE 320 -960 320 -976
WIRE 576 -944 576 -1008
WIRE 320 -928 320 -960
WIRE 464 -928 464 -976
WIRE 512 -928 512 -1088
WIRE 512 -928 464 -928
WIRE 544 -928 512 -928
WIRE -128 -912 -128 -960
WIRE -128 -912 -160 -912
WIRE 16 -912 16 -960
WIRE 240 -912 240 -1056
WIRE 240 -912 16 -912
WIRE 288 -912 240 -912
WIRE 672 -912 672 -1088
WIRE 672 -912 608 -912
WIRE 736 -912 672 -912
WIRE 880 -912 864 -912
WIRE 384 -896 384 -1056
WIRE 384 -896 352 -896
WIRE 544 -896 384 -896
WIRE 160 -880 16 -880
WIRE 288 -880 160 -880
WIRE -128 -864 -128 -912
WIRE -112 -864 -128 -864
WIRE 16 -864 16 -880
WIRE 16 -864 -32 -864
WIRE 576 -864 576 -880
WIRE 240 -848 240 -912
WIRE 464 -848 464 -928
WIRE 576 -848 576 -864
WIRE -256 -816 -256 -896
WIRE 320 -816 320 -864
WIRE 880 -816 880 -912
WIRE 160 -800 160 -880
WIRE -448 -784 -448 -896
WIRE 464 -736 464 -768
WIRE 240 -720 240 -768
WIRE -448 -704 -448 -784
WIRE -256 -704 -256 -816
WIRE 672 -688 672 -912
WIRE 672 -688 272 -688
WIRE 160 -592 160 -720
WIRE 240 -592 240 -656
WIRE 880 -592 880 -736
WIRE -448 -528 -448 -624
WIRE -256 -528 -256 -624
FLAG 464 -736 0
FLAG 240 -592 0
FLAG 160 -592 0
FLAG 320 -816 0
FLAG -256 -528 0
FLAG -448 -528 0
FLAG -256 -816 Vcc
FLAG -448 -784 Vctrl
FLAG -160 -912 Vctrl
FLAG 320 -960 Vcc
FLAG 464 -1088 Vcc
FLAG 608 -992 0
FLAG 576 -864 Vcc
FLAG 880 -592 0
SYMBOL res 480 -752 R180
WINDOW 0 36 76 Left 2
WINDOW 3 36 40 Left 2
SYMATTR InstName R9
SYMATTR Value 100K
SYMBOL res 480 -960 R180
WINDOW 0 36 76 Left 2
WINDOW 3 36 40 Left 2
SYMATTR InstName R10
SYMATTR Value 100K
SYMBOL res 528 -1072 R270
WINDOW 0 32 56 VTop 2
WINDOW 3 0 56 VBottom 2
SYMATTR InstName R11
SYMATTR Value 100K
SYMBOL res -16 -976 R90
WINDOW 0 0 56 VBottom 2
WINDOW 3 32 56 VTop 2
SYMATTR InstName R12
SYMATTR Value 40K
SYMBOL res -16 -880 R90
WINDOW 0 0 56 VBottom 2
WINDOW 3 32 56 VTop 2
SYMATTR InstName R13
SYMATTR Value 20K
SYMBOL res 176 -704 R180
WINDOW 0 36 76 Left 2
WINDOW 3 36 40 Left 2
SYMATTR InstName R14
SYMATTR Value 20K
SYMBOL res 256 -752 R180
WINDOW 0 36 76 Left 2
WINDOW 3 36 40 Left 2
SYMATTR InstName R15
SYMATTR Value 20K
SYMBOL cap 336 -1072 R90
WINDOW 0 0 32 VBottom 2
WINDOW 3 32 32 VTop 2
SYMATTR InstName C2
SYMATTR Value 10p
SYMBOL voltage -448 -720 R0
SYMATTR InstName V3
SYMATTR Value 2.5
SYMBOL voltage -256 -720 R0
SYMATTR InstName V4
SYMATTR Value 5
SYMBOL BS170 240 -688 M0
SYMATTR InstName U7
SYMBOL 74hct14 784 -976 R0
SYMATTR InstName U2
SYMBOL res 864 -832 R0
SYMATTR InstName R1
SYMATTR Value 100Meg
SYMBOL OpAmps\\UniversalOpAmp2 320 -896 R0
SYMATTR InstName U1
SYMBOL OpAmps\\UniversalOpAmp2 576 -912 M180
SYMATTR InstName U3
TEXT -64 -440 Left 2 !.include LM324.lib
TEXT -64 -392 Left 2 !.tran 1m
TEXT -64 -416 Left 2 !.include BS170.lib
TEXT -64 -464 Left 2 !.include 74hct.lib
