Version 4.1
SHEET 1 2372 680
WIRE 272 -1056 240 -1056
WIRE 384 -1056 336 -1056
WIRE 0 -960 -16 -960
WIRE 128 -960 80 -960
WIRE 320 -960 320 -976
WIRE 320 -928 320 -960
WIRE -16 -912 -16 -960
WIRE -16 -912 -48 -912
WIRE 128 -912 128 -960
WIRE 240 -912 240 -1056
WIRE 240 -912 128 -912
WIRE 288 -912 240 -912
WIRE 384 -896 384 -1056
WIRE 384 -896 352 -896
WIRE 464 -896 384 -896
WIRE 624 -896 592 -896
WIRE 672 -896 624 -896
WIRE 160 -880 128 -880
WIRE 288 -880 160 -880
WIRE -16 -864 -16 -912
WIRE 0 -864 -16 -864
WIRE 128 -864 128 -880
WIRE 128 -864 80 -864
WIRE 240 -848 240 -912
WIRE 320 -816 320 -864
WIRE 160 -800 160 -880
WIRE -112 -784 -144 -784
WIRE 0 -784 -32 -784
WIRE -144 -752 -144 -784
WIRE -32 -752 -32 -784
WIRE 240 -736 240 -768
WIRE 240 -704 240 -736
WIRE -144 -640 -144 -672
WIRE -32 -640 -32 -672
WIRE 672 -624 672 -896
WIRE 672 -624 288 -624
WIRE 160 -592 160 -720
WIRE 240 -592 240 -608
FLAG 240 -592 0
FLAG 160 -592 0
FLAG 320 -816 0
FLAG -144 -640 0
FLAG -32 -640 0
FLAG -112 -784 Vcc
FLAG 0 -784 Vctrl
FLAG -48 -912 Vctrl
FLAG 320 -960 Vcc
FLAG 624 -896 OUT
FLAG 240 -736 Vd
SYMBOL res 96 -976 R90
WINDOW 0 0 56 VBottom 2
WINDOW 3 32 56 VTop 2
SYMATTR InstName R12
SYMATTR Value {R2}
SYMBOL res 96 -880 R90
WINDOW 0 0 56 VBottom 2
WINDOW 3 32 56 VTop 2
SYMATTR InstName R13
SYMATTR Value {R}
SYMBOL res 176 -704 R180
WINDOW 0 36 76 Left 2
WINDOW 3 36 40 Left 2
SYMATTR InstName R14
SYMATTR Value {R}
SYMBOL res 256 -752 R180
WINDOW 0 36 76 Left 2
WINDOW 3 36 40 Left 2
SYMATTR InstName R15
SYMATTR Value {R}
SYMBOL cap 336 -1072 R90
WINDOW 0 0 32 VBottom 2
WINDOW 3 32 32 VTop 2
SYMATTR InstName C2
SYMATTR Value {C}
SYMBOL voltage -32 -768 R0
WINDOW 123 0 0 Left 0
WINDOW 39 0 0 Left 0
SYMATTR InstName V1
SYMATTR Value {Vcontrol}
SYMBOL voltage -144 -768 R0
WINDOW 123 0 0 Left 0
WINDOW 39 0 0 Left 0
SYMATTR InstName V2
SYMATTR Value 5
SYMBOL nmos 288 -704 M0
SYMATTR InstName M1
SYMBOL OpAmps\\UniversalOpAmp2 320 -896 R0
SYMATTR InstName U1
SYMBOL 74hct14 512 -960 R0
SYMATTR InstName U2
TEXT 736 -688 Left 2 !.include LM324.lib\n.include BS170.lib\n.include 74HCT.lib
TEXT 736 -1016 Left 2 !.tran 0 5m 0 100n
TEXT 1160 -1160 Left 2 ;.step param R list 5K 10K 20K 40K 50K
TEXT 1160 -1128 Left 2 ;.step param C list 0.001p 0.0001p 0.00001p
TEXT 1160 -1096 Left 2 ;.step param Rst list 40K 56K 80K 100K 150K 200K
TEXT 736 -816 Left 2 !.meas TRAN tperiod TRIGV(out)=2.5 TD=3ms RISE=1 TARG V(out)=2.5 TD=3ms RISE=2\n.meas TRAN FREQ PARAM 1/tperiod
TEXT 440 -1088 Left 2 !.param Rst 20K\n.param R 20K\n.param R2 2*R\n.param C 1pF\n.param Vcontrol 5V
TEXT 1056 -680 Left 2 !.option noopiter
